

## Overview

                    │                    Analyzed Image                     
────────────────────┼───────────────────────────────────────────────────────
  Target            │  mosipqa/pre-registration-application-service:1.3.x   
    digest          │  d1a7d0de7f2a                                         
    platform        │ linux/amd64                                           
    vulnerabilities │    2C    15H     8M     2L     1?                     
    size            │ 506 MB                                                
    packages        │ 466                                                   


## Packages and Vulnerabilities

   1C     1H     0M     0L  org.dom4j/dom4j 1.1
pkg:maven/org.dom4j/dom4j@1.1

    x CRITICAL CVE-2020-10683 [Improper Restriction of XML External Entity Reference]
      https://scout.docker.com/v/CVE-2020-10683?s=github&n=dom4j&ns=org.dom4j&t=maven&vr=%3C2.0.3
      Affected range : <2.0.3                                        
      Fixed version  : 2.0.3                                         
      CVSS Score     : 9.8                                           
      CVSS Vector    : CVSS:3.1/AV:N/AC:L/PR:N/UI:N/S:U/C:H/I:H/A:H  
    
    x HIGH CVE-2018-1000632 [XML Injection (aka Blind XPath Injection)]
      https://scout.docker.com/v/CVE-2018-1000632?s=github&n=dom4j&ns=org.dom4j&t=maven&vr=%3C2.0.3
      Affected range : <2.0.3                                        
      Fixed version  : 2.0.3                                         
      CVSS Score     : 7.5                                           
      CVSS Vector    : CVSS:3.1/AV:N/AC:L/PR:N/UI:N/S:U/C:N/I:H/A:N  
    

   1C     0H     0M     0L  org.springframework.security/spring-security-web 6.2.2
pkg:maven/org.springframework.security/spring-security-web@6.2.2

    x CRITICAL CVE-2024-38821 [Improper Authorization]
      https://scout.docker.com/v/CVE-2024-38821?s=github&n=spring-security-web&ns=org.springframework.security&t=maven&vr=%3E%3D6.2.0%2C%3C6.2.7
      Affected range : >=6.2.0                                                          
                     : <6.2.7                                                           
      Fixed version  : 6.2.7                                                            
      CVSS Score     : 9.1                                                              
      CVSS Vector    : CVSS:4.0/AV:N/AC:L/AT:N/PR:N/UI:N/VC:H/VI:H/VA:N/SC:N/SI:N/SA:N  
    

   0C     3H     1M     0L  org.apache.struts/struts-core 1.3.8
pkg:maven/org.apache.struts/struts-core@1.3.8

    x HIGH CVE-2016-1182 [Improper Input Validation]
      https://scout.docker.com/v/CVE-2016-1182?s=github&n=struts-core&ns=org.apache.struts&t=maven&vr=%3C%3D1.3.10
      Affected range : <=1.3.10                                      
      Fixed version  : not fixed                                     
      CVSS Score     : 8.2                                           
      CVSS Vector    : CVSS:3.0/AV:N/AC:L/PR:N/UI:N/S:U/C:N/I:L/A:H  
    
    x HIGH CVE-2016-1181 [Improper Input Validation]
      https://scout.docker.com/v/CVE-2016-1181?s=github&n=struts-core&ns=org.apache.struts&t=maven&vr=%3C%3D1.3.10
      Affected range : <=1.3.10                                      
      Fixed version  : not fixed                                     
      CVSS Score     : 8.1                                           
      CVSS Vector    : CVSS:3.0/AV:N/AC:H/PR:N/UI:N/S:U/C:H/I:H/A:H  
    
    x HIGH CVE-2015-0899 [Improper Input Validation]
      https://scout.docker.com/v/CVE-2015-0899?s=github&n=struts-core&ns=org.apache.struts&t=maven&vr=%3E%3D1.1%2C%3C%3D1.3.10
      Affected range : >=1.1                                         
                     : <=1.3.10                                      
      Fixed version  : not fixed                                     
      CVSS Score     : 7.5                                           
      CVSS Vector    : CVSS:3.0/AV:N/AC:L/PR:N/UI:N/S:U/C:N/I:H/A:N  
    
    x MEDIUM CVE-2012-1007 [Improper Neutralization of Input During Web Page Generation ('Cross-site Scripting')]
      https://scout.docker.com/v/CVE-2012-1007?s=github&n=struts-core&ns=org.apache.struts&t=maven&vr=%3C%3D1.3.10
      Affected range : <=1.3.10   
      Fixed version  : not fixed  
    

   0C     2H     1M     0L  org.springframework/spring-web 6.1.4
pkg:maven/org.springframework/spring-web@6.1.4

    x HIGH CVE-2024-22262 [URL Redirection to Untrusted Site ('Open Redirect')]
      https://scout.docker.com/v/CVE-2024-22262?s=github&n=spring-web&ns=org.springframework&t=maven&vr=%3E%3D6.1.0%2C%3C6.1.6
      Affected range : >=6.1.0                                       
                     : <6.1.6                                        
      Fixed version  : 6.1.6                                         
      CVSS Score     : 8.1                                           
      CVSS Vector    : CVSS:3.1/AV:N/AC:L/PR:N/UI:R/S:U/C:H/I:H/A:N  
    
    x HIGH CVE-2024-22259 [URL Redirection to Untrusted Site ('Open Redirect')]
      https://scout.docker.com/v/CVE-2024-22259?s=github&n=spring-web&ns=org.springframework&t=maven&vr=%3E%3D6.1.0%2C%3C6.1.5
      Affected range : >=6.1.0                                       
                     : <6.1.5                                        
      Fixed version  : 6.1.5                                         
      CVSS Score     : 8.1                                           
      CVSS Vector    : CVSS:3.1/AV:N/AC:L/PR:N/UI:R/S:U/C:H/I:H/A:N  
    
    x MEDIUM CVE-2024-38809 [Inefficient Regular Expression Complexity]
      https://scout.docker.com/v/CVE-2024-38809?s=github&n=spring-web&ns=org.springframework&t=maven&vr=%3E%3D6.1.0%2C%3C6.1.12
      Affected range : >=6.1.0                                                          
                     : <6.1.12                                                          
      Fixed version  : 6.1.12                                                           
      CVSS Score     : 5.3                                                              
      CVSS Vector    : CVSS:4.0/AV:N/AC:L/AT:N/PR:N/UI:N/VC:N/VI:N/VA:L/SC:N/SI:N/SA:N  
    

   0C     1H     1M     0L  commons-io/commons-io 2.6
pkg:maven/commons-io/commons-io@2.6

    x HIGH CVE-2024-47554 [Uncontrolled Resource Consumption]
      https://scout.docker.com/v/CVE-2024-47554?s=github&n=commons-io&ns=commons-io&t=maven&vr=%3E%3D2.0%2C%3C2.14.0
      Affected range : >=2.0                                                            
                     : <2.14.0                                                          
      Fixed version  : 2.14.0                                                           
      CVSS Score     : 7.5                                                              
      CVSS Vector    : CVSS:4.0/AV:N/AC:L/AT:N/PR:N/UI:N/VC:N/VI:N/VA:H/SC:N/SI:N/SA:N  
    
    x MEDIUM CVE-2021-29425 [Improper Input Validation]
      https://scout.docker.com/v/CVE-2021-29425?s=github&n=commons-io&ns=commons-io&t=maven&vr=%3C2.7
      Affected range : <2.7                                          
      Fixed version  : 2.7                                           
      CVSS Score     : 4.8                                           
      CVSS Vector    : CVSS:3.1/AV:N/AC:H/PR:N/UI:N/S:U/C:L/I:L/A:N  
    

   0C     1H     0M     0L  org.apache.velocity/velocity 1.7
pkg:maven/org.apache.velocity/velocity@1.7

    x HIGH CVE-2020-13936 [Improper Input Validation]
      https://scout.docker.com/v/CVE-2020-13936?s=github&n=velocity&ns=org.apache.velocity&t=maven&vr=%3C%3D1.7
      Affected range : <=1.7                                         
      Fixed version  : not fixed                                     
      CVSS Score     : 8.8                                           
      CVSS Vector    : CVSS:3.1/AV:N/AC:L/PR:L/UI:N/S:U/C:H/I:H/A:H  
    

   0C     1H     0M     0L  org.springframework/spring-webmvc 6.1.4
pkg:maven/org.springframework/spring-webmvc@6.1.4

    x HIGH CVE-2024-38816
      https://scout.docker.com/v/CVE-2024-38816?s=github&n=spring-webmvc&ns=org.springframework&t=maven&vr=%3E%3D6.1.0%2C%3C6.1.13
      Affected range : >=6.1.0                                       
                     : <6.1.13                                       
      Fixed version  : 6.1.13                                        
      CVSS Score     : 7.5                                           
      CVSS Vector    : CVSS:3.1/AV:N/AC:L/PR:N/UI:N/S:U/C:H/I:N/A:N  
    

   0C     1H     0M     0L  com.amazonaws/aws-java-sdk-s3 1.11.368
pkg:maven/com.amazonaws/aws-java-sdk-s3@1.11.368

    x HIGH CVE-2022-31159 [Improper Limitation of a Pathname to a Restricted Directory ('Path Traversal')]
      https://scout.docker.com/v/CVE-2022-31159?s=github&n=aws-java-sdk-s3&ns=com.amazonaws&t=maven&vr=%3C1.12.261
      Affected range : <1.12.261                                     
      Fixed version  : 1.12.261                                      
      CVSS Score     : 7.9                                           
      CVSS Vector    : CVSS:3.1/AV:N/AC:H/PR:L/UI:R/S:C/C:H/I:H/A:L  
    

   0C     1H     0M     0L  org.springframework.security/spring-security-core 6.2.2
pkg:maven/org.springframework.security/spring-security-core@6.2.2

    x HIGH CVE-2024-22257 [Improper Authentication]
      https://scout.docker.com/v/CVE-2024-22257?s=github&n=spring-security-core&ns=org.springframework.security&t=maven&vr=%3E%3D6.2.0%2C%3C6.2.3
      Affected range : >=6.2.0                                       
                     : <6.2.3                                        
      Fixed version  : 6.2.3                                         
      CVSS Score     : 8.2                                           
      CVSS Vector    : CVSS:3.1/AV:N/AC:L/PR:N/UI:N/S:U/C:H/I:L/A:N  
    

   0C     1H     0M     0L  net.minidev/json-smart 2.4.7
pkg:maven/net.minidev/json-smart@2.4.7

    x HIGH CVE-2023-1370 [Uncontrolled Recursion]
      https://scout.docker.com/v/CVE-2023-1370?s=github&n=json-smart&ns=net.minidev&t=maven&vr=%3C2.4.9
      Affected range : <2.4.9                                        
      Fixed version  : 2.4.9                                         
      CVSS Score     : 7.5                                           
      CVSS Vector    : CVSS:3.1/AV:N/AC:L/PR:N/UI:N/S:U/C:N/I:N/A:H  
    

   0C     1H     0M     0L  software.amazon.ion/ion-java 1.0.2
pkg:maven/software.amazon.ion/ion-java@1.0.2

    x HIGH CVE-2024-21634 [Allocation of Resources Without Limits or Throttling]
      https://scout.docker.com/v/CVE-2024-21634?s=github&n=ion-java&ns=software.amazon.ion&t=maven&vr=%3C1.10.5
      Affected range : <1.10.5                                       
      Fixed version  : not fixed                                     
      CVSS Score     : 7.5                                           
      CVSS Vector    : CVSS:3.1/AV:N/AC:L/PR:N/UI:N/S:U/C:N/I:N/A:H  
    

   0C     1H     0M     0L  com.nimbusds/nimbus-jose-jwt 9.14
pkg:maven/com.nimbusds/nimbus-jose-jwt@9.14

    x HIGH CVE-2023-52428 [Uncontrolled Resource Consumption]
      https://scout.docker.com/v/CVE-2023-52428?s=github&n=nimbus-jose-jwt&ns=com.nimbusds&t=maven&vr=%3C9.37.2
      Affected range : <9.37.2                                       
      Fixed version  : 9.37.2                                        
      CVSS Score     : 7.5                                           
      CVSS Vector    : CVSS:3.1/AV:N/AC:L/PR:N/UI:N/S:U/C:N/I:N/A:H  
    

   0C     1H     0M     0L  org.apache.tomcat.embed/tomcat-embed-core 10.1.19
pkg:maven/org.apache.tomcat.embed/tomcat-embed-core@10.1.19

    x HIGH CVE-2024-34750 [Uncontrolled Resource Consumption]
      https://scout.docker.com/v/CVE-2024-34750?s=github&n=tomcat-embed-core&ns=org.apache.tomcat.embed&t=maven&vr=%3E%3D10.1.0-M1%2C%3C10.1.25
      Affected range : >=10.1.0-M1                                                      
                     : <10.1.25                                                         
      Fixed version  : 10.1.25                                                          
      CVSS Score     : 7.5                                                              
      CVSS Vector    : CVSS:4.0/AV:N/AC:L/AT:N/PR:N/UI:N/VC:N/VI:N/VA:H/SC:N/SI:N/SA:N  
    

   0C     0H     2M     1L  com.google.guava/guava 19.0
pkg:maven/com.google.guava/guava@19.0

    x MEDIUM CVE-2018-10237 [Deserialization of Untrusted Data]
      https://scout.docker.com/v/CVE-2018-10237?s=github&n=guava&ns=com.google.guava&t=maven&vr=%3E%3D11.0%2C%3C24.1.1-android
      Affected range : >=11.0                                        
                     : <24.1.1-android                               
      Fixed version  : 24.1.1                                        
      CVSS Score     : 5.9                                           
      CVSS Vector    : CVSS:3.1/AV:N/AC:H/PR:N/UI:N/S:U/C:N/I:N/A:H  
    
    x MEDIUM CVE-2023-2976 [Creation of Temporary File in Directory with Insecure Permissions]
      https://scout.docker.com/v/CVE-2023-2976?s=github&n=guava&ns=com.google.guava&t=maven&vr=%3E%3D1.0%2C%3C32.0.0-android
      Affected range : >=1.0                                         
                     : <32.0.0-android                               
      Fixed version  : 32.0.0                                        
      CVSS Score     : 5.5                                           
      CVSS Vector    : CVSS:3.1/AV:L/AC:L/PR:L/UI:N/S:U/C:H/I:N/A:N  
    
    x LOW CVE-2020-8908 [Improper Handling of Alternate Encoding]
      https://scout.docker.com/v/CVE-2020-8908?s=github&n=guava&ns=com.google.guava&t=maven&vr=%3C32.0.0-android
      Affected range : <32.0.0-android                               
      Fixed version  : 32.0.0                                        
      CVSS Score     : 3.3                                           
      CVSS Vector    : CVSS:3.1/AV:L/AC:L/PR:L/UI:N/S:U/C:L/I:N/A:N  
    

   0C     0H     1M     0L  io.netty/netty-codec-http 4.1.107.Final
pkg:maven/io.netty/netty-codec-http@4.1.107.Final

    x MEDIUM CVE-2024-29025 [Allocation of Resources Without Limits or Throttling]
      https://scout.docker.com/v/CVE-2024-29025?s=github&n=netty-codec-http&ns=io.netty&t=maven&vr=%3C4.1.108.Final
      Affected range : <4.1.108.Final                                
      Fixed version  : 4.1.108.Final                                 
      CVSS Score     : 5.3                                           
      CVSS Vector    : CVSS:3.1/AV:N/AC:L/PR:N/UI:N/S:U/C:N/I:N/A:L  
    

   0C     0H     1M     0L  org.apache.velocity/velocity-tools 2.0
pkg:maven/org.apache.velocity/velocity-tools@2.0

    x MEDIUM CVE-2020-13959 [Improper Neutralization of Input During Web Page Generation ('Cross-site Scripting')]
      https://scout.docker.com/v/CVE-2020-13959?s=github&n=velocity-tools&ns=org.apache.velocity&t=maven&vr=%3C%3D2.0
      Affected range : <=2.0                                         
      Fixed version  : not fixed                                     
      CVSS Score     : 6.1                                           
      CVSS Vector    : CVSS:3.1/AV:N/AC:L/PR:N/UI:R/S:C/C:L/I:L/A:N  
    

   0C     0H     1M     0L  org.springframework/spring-context 6.1.4
pkg:maven/org.springframework/spring-context@6.1.4

    x MEDIUM CVE-2024-38820 [Improper Handling of Case Sensitivity]
      https://scout.docker.com/v/CVE-2024-38820?s=github&n=spring-context&ns=org.springframework&t=maven&vr=%3E%3D6.1.0%2C%3C6.1.14
      Affected range : >=6.1.0                                       
                     : <6.1.14                                       
      Fixed version  : 6.1.14                                        
      CVSS Score     : 5.3                                           
      CVSS Vector    : CVSS:3.1/AV:N/AC:L/PR:N/UI:N/S:U/C:N/I:L/A:N  
    

   0C     0H     0M     1L  org.xmlunit/xmlunit-core 2.9.1
pkg:maven/org.xmlunit/xmlunit-core@2.9.1

    x LOW CVE-2024-31573
      https://scout.docker.com/v/CVE-2024-31573?s=github&n=xmlunit-core&ns=org.xmlunit&t=maven&vr=%3C2.10.0
      Affected range : <2.10.0  
      Fixed version  : 2.10.0   
    

   0C     0H     0M     0L     1?  openssl 3.3.2-r0
pkg:apk/alpine/openssl@3.3.2-r0?os_name=alpine&os_version=3.20

    x UNSPECIFIED CVE-2024-9143
      https://scout.docker.com/v/CVE-2024-9143?s=alpine&n=openssl&ns=alpine&t=apk&osn=alpine&osv=3.20&vr=%3C3.3.2-r1
      Affected range : <3.3.2-r1  
      Fixed version  : 3.3.2-r1   
    


28 vulnerabilities found in 19 packages
  UNSPECIFIED  1   
  LOW          2   
  MEDIUM       8   
  HIGH         15  
  CRITICAL     2   

